/*--------------------------------*- C++ -*----------------------------------*\
| =========                 |                                                 |
| \\      /  F ield         | OpenFOAM: The Open Source CFD Toolbox           |
|  \\    /   O peration     | Version:  2.2.2                                 |
|   \\  /    A nd           | Web:      www.OpenFOAM.org                      |
|    \\/     M anipulation  |                                                 |
\*---------------------------------------------------------------------------*/
FoamFile
{
    version     2.0;
    format      ascii;
    class       volScalarField;
    location    "0";
    object      ph_rgh;
}
// * * * * * * * * * * * * * * * * * * * * * * * * * * * * * * * * * * * * * //

dimensions      [1 -1 -2 0 0 0 0];

internalField   uniform 0;

boundaryField
{
    front
    {
        type            fixedFluxPressure;
        value           $internalField;
    }

    back
    {
        type            fixedFluxPressure;
        value           $internalField;
    }

    sides
    {
        type            fixedFluxPressure;
        value           $internalField;
    }

    region0_to_sampleRegion_sample
    {
        type            fixedFluxPressure;
        value           $internalField;
    }
}

// ************************************************************************* //
